<routes>
	<vType id="bus" vClass="bus" accel="1.0" decel="1.0" sigma="0.5" length="12" minGap="2.5" maxSpeed="30" />
	<vType id="car" accel="2.6" decel="4.5" sigma="0.5" length="4.5" minGap="2.5" maxSpeed="80" color="blue" />
	<vType id="pedestrian" vClass="pedestrian" width="0.70" length="0.60" />
	<route id="busRoute1" edges="-16374393#0 -1199889721#0 -505526660#0 -356359316#3" />
	<route id="busRoute2" edges="37289167#4 37289167#6 37289167#7 36259516#0 36259516#1 159081772#1 159081772#2 4396109 453379904 356359316#1 356359316#2 356359316#3 1199404285 -505526660#0 -356359316#3" />
	<route id="busRoute3" edges="-1132166349#0 -65040958#2 -16374393#0 -1199889721#0 -505526660#0 -356359316#3 -356359316#2" />
	<route id="busRoute4" edges="1147754937#2 563341816#1 563341816#2 1147755019#2 1147755019#3 4396526#1 4396526#2 4396526#3 4396526#4 328064927#0 466891838#1 466891838#3 1147755017#0 1147755017#1 1147755014#2 1147755014#3 1147755013#1 328064919#1 328064919#2 328064919#3 1147755012 24214089#1 24214089#2 24214089#3 24214089#4 24214089#5 24214089#6 24214089#7 24214089#8 11845212 328064918#0 328064918#2 159081772#1 159081772#2 4396109 453379904 356359316#1 356359316#2 356359316#3 1199404285 707100745#1 1199889721#1 -16374393#0 -1199889721#0 -505526660#0 -356359316#3 -356359316#2 -356359316#1" />
	<route id="busRoute5" edges="328064927#0 1057138146#1 1147413257#0 1147413257#1 1147413256#1 1147413255#1 1147413255#2 1147413249#0 1147413246 -1147413269#1 -1147413268 -39839435#1 -1147413271#1 -28402260#3 -28402260#2 1152723799#1 4611774#1 4611774#2 4611774#3 4611774#4 1152723801  -1152876521#0 -1152876518#0 -67099797#1 -435164424#0 199847244#1 199847244#2 199847244#3 81113584#0 -327462543#1 -1132164863 -16374393#0 -1199889721#0 -505526660#0 -356359316#3" />
	<route id="busRoute6" edges="37289167#3 37289167#4 37289167#6 37289167#7 36259516#0 36259516#1 159081772#1 159081772#2 4396109 453379904 356359316#1 356359316#2 356359316#3 1199404285 -505526660#0 -356359316#3" />
	<route id="busRoute7" edges="1132165078#1  1132165078#2 1132164893#1 -16374393#0 -1199889721#0 -505526660#0 -356359316#3" />
	<route id="busRoute8" edges="665241888#1 1136657266#1 1136657266#2 4588224#0 4588224#1 1132165078#1  1132165078#2 1132164893#1 -16374393#0 -1199889721#0 -505526660#0 -356359316#3" />
	<route id="busRoute9" edges="-23453218  -67557767 -1128232941#1 1174253786#3 1100552769#2 25121299 -1174265474#0 -110450332#1 -110450332#0 1209494754 1209494764#2 -1152906480 -1152906481 -28497262#2 28497260#0 -1152906482#1 -32936807#5 -32936807#4 -32936807#3 -32936807#2 -32936807#0 -1152906483#2 -104652096#3 -80366517#11 -80366517#8 -80366517#7 -80366517#6 -80366517#5 -80366517#4 -80366517#2 -490361982#3 -490361981#2 -490361981#0 -25121300#2 -25121300#0 1152890201 1152890200 25121294#1 25121294#2 37294341#0 4395698 16943611#0 16943612 763211372#3 1125773127#0 1125773127#1 1125773128#0 1125773128#1 25041996#2 1124624271 404598741#0 664586644#0 37289167#3 37289167#4 37289167#6 37289167#7 36259516#0 36259516#1 159081772#1 159081772#2 4396109 453379904 356359316#1 356359316#2 356359316#3 1199404285 -505526660#0 -356359316#3" />
	<route id="busRoute10" edges="1209494754 1209494764#2 -1152906480 -1152906481 -28497262#2 28497260#0 -1152906482#1 -32936807#5 -32936807#4 -32936807#3 -32936807#2 -32936807#0 -1152906483#2 -104652096#3 -80366517#11 -80366517#8 -80366517#7 -80366517#6 -80366517#5 -80366517#4 -80366517#2 -490361982#3 -490361981#2 -490361981#0 -25121300#2 -25121300#0 1152890201 1152890200 25121294#1 25121294#2 37294341#0 4395698 16943611#0 16943612 763211372#3 1125773127#0 1125773127#1 1125773128#0 1125773128#1 25041996#2 1124624271 404598741#0 664586644#0 37289167#3 37289167#4 37289167#6 37289167#7 36259516#0 36259516#1 159081772#1 159081772#2 4396109 453379904 356359316#1 356359316#2 356359316#3 1199404285 -505526660#0 -356359316#3" />
	<route id="busRoute11" edges="-110450332#0 1209494754 1209494764#2 -1152906480 -1152906481 -28497262#2 28497260#0 -1152906482#1 -32936807#5 -32936807#4 -32936807#3 -32936807#2 -32936807#0 -1152906483#2 -104652096#3 -80366517#11 -80366517#8 -80366517#7 -80366517#6 -80366517#5 -80366517#4 -80366517#2 -490361982#3 -490361981#2 -490361981#0 -25121300#2 -25121300#0 1152890201 1152890200 25121294#1 25121294#2 37294341#0 4395698 16943611#0 16943612 763211372#3 1125773127#0 1125773127#1 1125773128#0 1125773128#1 25041996#2 1124624271 404598741#0 664586644#0 37289167#3 37289167#4 37289167#6 37289167#7 36259516#0 36259516#1 159081772#1 159081772#2 4396109 453379904 356359316#1 356359316#2 356359316#3 1199404285 -505526660#0 -356359316#3" />
	<route id="vehRoute1" edges="4531624#5 4531624#6 4531624#10 -1128209803#3 -1128209803#2 -1128209803#0 -1214394197#0 -4531625#1 -4531625#0 152953803 1174257961#1 4618893#1 1174253788#1 1174253779#1 67707649#1 508614986 1144048223#1 1144047048#0 1144047048#3 593851959#0 593851959#1 593851959#2 593851959#4 593851959#5 593851959#6 593851959#7 1165173551#0 1165173551#4 593851958#0 593851958#1 593851958#2 1185347574 110450330#1 110450330#2 397052779#0 397052779#1 1165448858#0 " />
	<route id="vehRoute2" edges="-593851965#1 155396257#1 155396257#2 -4603390#2 -4603390#1 13863115 187939148#0 187939148#1 593851965#1 1254450668#1 155396256#1" />
	<route id="vehRoute3" edges="-181407580#13 -181407580#12 -181407580#11 -181407580#9 -181407580#7 -181407580#6 -181407580#5 -181407580#4 -181407580#3 -181407580#2 -181407580#1 -181407580#0 -1133304144#3 -790444789#1 -4579851#3 -4579851#2 666317537#0 666317537#2 1079316194 1079316193#0 1079316193#1 1133296854 155073131#0 155073131#1 155073131#3 155073131#4 318668065#0 10996272#3 391493957#0 4526202#2 1142744721#1 690575144#0 690575145 539116809 1191505117#0 1191505455#1 35373236#2 539116564#0 1057192512#2 1057192512#3 155071250#2 155071250#3 155071250#4 1133296876#1 1133296876#2 1133296876#5 1133296874#1 1133296873#1 52158841#2 489480666#1" />
	<route id="vehRoute4" edges="35373236#2 539116564#0 1057192512#2 1057192512#3 155071250#2 155071250#3 155071250#4 1133296876#1 1133296876#2 1133296876#5 1133296874#1 1133296873#1 52158841#2 489480666#1" />
	<route id="vehRoute5" edges="1057528473#1 1057528473#2 1147755002 1147755001#0 1147755001#1 1147755001#2 -563341816#2 -563341816#1 -563341816#0 -1147754937#1 -1147754937#0 -1147754939#0 -1147754940#0 -1147754941 1147754944 1147754949#1 1147754946#1 42998616#2 42998616#3 1186574031 1126171520#1 1126171520#2 1046077064#1 1046077064#3 1147768014#0 1147768014#1 1147768018#0 1147768018#1 1147768018#2 1147768018#3 4611862#2 4611862#5 1147768017#2 466891839#0" />
	<vehicle id="1" type="bus" route="busRoute6" depart="2">
		<stop busStop="bs_5" duration="50" />
		<stop busStop="bs_6" duration="50" />
		<stop busStop="bs_7" duration="50" />
		<stop busStop="bs_8" duration="50" />
		<stop busStop="bs_2" duration="50" />
	</vehicle>
	<vehicle id="2" type="bus" route="busRoute9" depart="2">
		<stop busStop="bs_11" duration="50" />
		<stop busStop="bs_12" duration="50" />
		<stop busStop="bs_7" duration="50" />
		<stop busStop="bs_8" duration="50" />
		<stop busStop="bs_2" duration="50" />
	</vehicle>
	<vehicle id="3" type="bus" route="busRoute7" depart="2">
		<stop busStop="bs_9" duration="50" />
		<stop busStop="bs_0" duration="50" />
		<stop busStop="bs_1" duration="50" />
		<stop busStop="bs_2" duration="50" />
	</vehicle>
	<vehicle id="4" type="bus" route="busRoute11" depart="2">
		<stop busStop="bs_12" duration="50" />
		<stop busStop="bs_7" duration="50" />
		<stop busStop="bs_8" duration="50" />
		<stop busStop="bs_2" duration="50" />
	</vehicle>
	<vehicle id="5" type="bus" route="busRoute11" depart="2">
		<stop busStop="bs_12" duration="50" />
		<stop busStop="bs_7" duration="50" />
		<stop busStop="bs_8" duration="50" />
		<stop busStop="bs_2" duration="50" />
	</vehicle>
	<vehicle id="6" type="bus" route="busRoute7" depart="2">
		<stop busStop="bs_9" duration="50" />
		<stop busStop="bs_0" duration="50" />
		<stop busStop="bs_1" duration="50" />
		<stop busStop="bs_2" duration="50" />
	</vehicle>
	<vehicle id="7" type="bus" route="busRoute3" depart="2">
		<stop busStop="bs_2" duration="50" />
	</vehicle>
	<vehicle id="8" type="bus" route="busRoute11" depart="2">
		<stop busStop="bs_12" duration="50" />
		<stop busStop="bs_7" duration="50" />
		<stop busStop="bs_8" duration="50" />
		<stop busStop="bs_2" duration="50" />
	</vehicle>
	<vehicle id="9" type="bus" route="busRoute4" depart="2">
		<stop busStop="bs_2" duration="50" />
	</vehicle>
	<vehicle id="10" type="bus" route="busRoute3" depart="2">
		<stop busStop="bs_2" duration="50" />
	</vehicle>
	<vehicle id="11" type="bus" route="busRoute9" depart="2">
		<stop busStop="bs_11" duration="50" />
		<stop busStop="bs_12" duration="50" />
		<stop busStop="bs_7" duration="50" />
		<stop busStop="bs_8" duration="50" />
		<stop busStop="bs_2" duration="50" />
	</vehicle>
	<vehicle id="12" type="bus" route="busRoute9" depart="2">
		<stop busStop="bs_11" duration="50" />
		<stop busStop="bs_12" duration="50" />
		<stop busStop="bs_7" duration="50" />
		<stop busStop="bs_8" duration="50" />
		<stop busStop="bs_2" duration="50" />
	</vehicle>
	<vehicle id="13" type="bus" route="busRoute5" depart="2">
		<stop busStop="bs_3" duration="50" />
		<stop busStop="bs_4" duration="50" />
		<stop busStop="bs_0" duration="50" />
		<stop busStop="bs_1" duration="50" />
		<stop busStop="bs_2" duration="50" />
	</vehicle>
	<vehicle id="14" type="bus" route="busRoute2" depart="2">
		<stop busStop="bs_2" duration="50" />
	</vehicle>
	<vehicle id="15" type="bus" route="busRoute1" depart="2">
		<stop busStop="bs_1" duration="50" />
		<stop busStop="bs_2" duration="50" />
	</vehicle>
	<vehicle id="16" type="bus" route="busRoute7" depart="2">
		<stop busStop="bs_9" duration="50" />
		<stop busStop="bs_0" duration="50" />
		<stop busStop="bs_1" duration="50" />
		<stop busStop="bs_2" duration="50" />
	</vehicle>
	<vehicle id="17" type="bus" route="busRoute6" depart="2">
		<stop busStop="bs_5" duration="50" />
		<stop busStop="bs_6" duration="50" />
		<stop busStop="bs_7" duration="50" />
		<stop busStop="bs_8" duration="50" />
		<stop busStop="bs_2" duration="50" />
	</vehicle>
	<vehicle id="18" type="bus" route="busRoute8" depart="2">
		<stop busStop="bs_10" duration="50" />
		<stop busStop="bs_9" duration="50" />
		<stop busStop="bs_0" duration="50" />
		<stop busStop="bs_1" duration="50" />
		<stop busStop="bs_2" duration="50" />
	</vehicle>
	<vehicle id="19" type="bus" route="busRoute9" depart="2">
		<stop busStop="bs_11" duration="50" />
		<stop busStop="bs_12" duration="50" />
		<stop busStop="bs_7" duration="50" />
		<stop busStop="bs_8" duration="50" />
		<stop busStop="bs_2" duration="50" />
	</vehicle>
	<vehicle id="20" type="bus" route="busRoute10" depart="2">
		<stop busStop="bs_7" duration="50" />
		<stop busStop="bs_8" duration="50" />
		<stop busStop="bs_2" duration="50" />
	</vehicle>
	<vehicle id="21" type="bus" route="busRoute2" depart="2">
		<stop busStop="bs_2" duration="50" />
	</vehicle>
	<vehicle id="22" type="bus" route="busRoute6" depart="2">
		<stop busStop="bs_5" duration="50" />
		<stop busStop="bs_6" duration="50" />
		<stop busStop="bs_7" duration="50" />
		<stop busStop="bs_8" duration="50" />
		<stop busStop="bs_2" duration="50" />
	</vehicle>
	<vehicle id="23" type="bus" route="busRoute5" depart="2">
		<stop busStop="bs_3" duration="50" />
		<stop busStop="bs_4" duration="50" />
		<stop busStop="bs_0" duration="50" />
		<stop busStop="bs_1" duration="50" />
		<stop busStop="bs_2" duration="50" />
	</vehicle>
	<vehicle id="24" type="bus" route="busRoute7" depart="2">
		<stop busStop="bs_9" duration="50" />
		<stop busStop="bs_0" duration="50" />
		<stop busStop="bs_1" duration="50" />
		<stop busStop="bs_2" duration="50" />
	</vehicle>
	<vehicle id="25" type="bus" route="busRoute8" depart="2">
		<stop busStop="bs_10" duration="50" />
		<stop busStop="bs_9" duration="50" />
		<stop busStop="bs_0" duration="50" />
		<stop busStop="bs_1" duration="50" />
		<stop busStop="bs_2" duration="50" />
	</vehicle>
	<vehicle id="26" type="bus" route="busRoute1" depart="2">
		<stop busStop="bs_1" duration="50" />
		<stop busStop="bs_2" duration="50" />
	</vehicle>
	<vehicle id="27" type="bus" route="busRoute3" depart="2">
		<stop busStop="bs_2" duration="50" />
	</vehicle>
	<vehicle id="28" type="bus" route="busRoute1" depart="2">
		<stop busStop="bs_1" duration="50" />
		<stop busStop="bs_2" duration="50" />
	</vehicle>
	<vehicle id="29" type="bus" route="busRoute7" depart="2">
		<stop busStop="bs_9" duration="50" />
		<stop busStop="bs_0" duration="50" />
		<stop busStop="bs_1" duration="50" />
		<stop busStop="bs_2" duration="50" />
	</vehicle>
	<vehicle id="30" type="bus" route="busRoute8" depart="2">
		<stop busStop="bs_10" duration="50" />
		<stop busStop="bs_9" duration="50" />
		<stop busStop="bs_0" duration="50" />
		<stop busStop="bs_1" duration="50" />
		<stop busStop="bs_2" duration="50" />
	</vehicle>
	<vehicle id="31" type="bus" route="busRoute11" depart="2">
		<stop busStop="bs_12" duration="50" />
		<stop busStop="bs_7" duration="50" />
		<stop busStop="bs_8" duration="50" />
		<stop busStop="bs_2" duration="50" />
	</vehicle>
	<vehicle id="32" type="bus" route="busRoute7" depart="2">
		<stop busStop="bs_9" duration="50" />
		<stop busStop="bs_0" duration="50" />
		<stop busStop="bs_1" duration="50" />
		<stop busStop="bs_2" duration="50" />
	</vehicle>
	<vehicle id="33" type="bus" route="busRoute6" depart="2">
		<stop busStop="bs_5" duration="50" />
		<stop busStop="bs_6" duration="50" />
		<stop busStop="bs_7" duration="50" />
		<stop busStop="bs_8" duration="50" />
		<stop busStop="bs_2" duration="50" />
	</vehicle>
	<vehicle id="34" type="bus" route="busRoute7" depart="2">
		<stop busStop="bs_9" duration="50" />
		<stop busStop="bs_0" duration="50" />
		<stop busStop="bs_1" duration="50" />
		<stop busStop="bs_2" duration="50" />
	</vehicle>
	<vehicle id="35" type="bus" route="busRoute1" depart="2">
		<stop busStop="bs_1" duration="50" />
		<stop busStop="bs_2" duration="50" />
	</vehicle>
	<vehicle id="36" type="bus" route="busRoute7" depart="2">
		<stop busStop="bs_9" duration="50" />
		<stop busStop="bs_0" duration="50" />
		<stop busStop="bs_1" duration="50" />
		<stop busStop="bs_2" duration="50" />
	</vehicle>
	<vehicle id="37" type="bus" route="busRoute11" depart="2">
		<stop busStop="bs_12" duration="50" />
		<stop busStop="bs_7" duration="50" />
		<stop busStop="bs_8" duration="50" />
		<stop busStop="bs_2" duration="50" />
	</vehicle>
	<vehicle id="38" type="bus" route="busRoute7" depart="2">
		<stop busStop="bs_9" duration="50" />
		<stop busStop="bs_0" duration="50" />
		<stop busStop="bs_1" duration="50" />
		<stop busStop="bs_2" duration="50" />
	</vehicle>
	<vehicle id="39" type="bus" route="busRoute4" depart="2">
		<stop busStop="bs_2" duration="50" />
	</vehicle>
	<vehicle id="40" type="bus" route="busRoute1" depart="2">
		<stop busStop="bs_1" duration="50" />
		<stop busStop="bs_2" duration="50" />
	</vehicle>
	<vehicle id="41" type="bus" route="busRoute2" depart="2">
		<stop busStop="bs_2" duration="50" />
	</vehicle>
	<vehicle id="42" type="bus" route="busRoute8" depart="2">
		<stop busStop="bs_10" duration="50" />
		<stop busStop="bs_9" duration="50" />
		<stop busStop="bs_0" duration="50" />
		<stop busStop="bs_1" duration="50" />
		<stop busStop="bs_2" duration="50" />
	</vehicle>
	<vehicle id="43" type="bus" route="busRoute2" depart="2">
		<stop busStop="bs_2" duration="50" />
	</vehicle>
	<vehicle id="44" type="bus" route="busRoute9" depart="2">
		<stop busStop="bs_11" duration="50" />
		<stop busStop="bs_12" duration="50" />
		<stop busStop="bs_7" duration="50" />
		<stop busStop="bs_8" duration="50" />
		<stop busStop="bs_2" duration="50" />
	</vehicle>
	<vehicle id="45" type="bus" route="busRoute4" depart="2">
		<stop busStop="bs_2" duration="50" />
	</vehicle>
	<vehicle id="46" type="bus" route="busRoute10" depart="2">
		<stop busStop="bs_7" duration="50" />
		<stop busStop="bs_8" duration="50" />
		<stop busStop="bs_2" duration="50" />
	</vehicle>
	<vehicle id="47" type="bus" route="busRoute3" depart="2">
		<stop busStop="bs_2" duration="50" />
	</vehicle>
	<vehicle id="48" type="bus" route="busRoute1" depart="2">
		<stop busStop="bs_1" duration="50" />
		<stop busStop="bs_2" duration="50" />
	</vehicle>
	<vehicle id="49" type="bus" route="busRoute8" depart="2">
		<stop busStop="bs_10" duration="50" />
		<stop busStop="bs_9" duration="50" />
		<stop busStop="bs_0" duration="50" />
		<stop busStop="bs_1" duration="50" />
		<stop busStop="bs_2" duration="50" />
	</vehicle>
	<vehicle id="50" type="bus" route="busRoute5" depart="2">
		<stop busStop="bs_3" duration="50" />
		<stop busStop="bs_4" duration="50" />
		<stop busStop="bs_0" duration="50" />
		<stop busStop="bs_1" duration="50" />
		<stop busStop="bs_2" duration="50" />
	</vehicle>
	<person id="1" type="pedestrian" depart="2">
		<stop edge="1149851903#4" duration="10" />
		<walk busStop="bs_8" duration="20" />
		<ride busStop="bs_8" to="-356359316#3" />
		<stop busStop="bs_2" duration="100" />
	</person>
	<person id="2" type="pedestrian" depart="2">
		<stop edge="241574704#1" duration="10" />
		<walk busStop="bs_7" duration="20" />
		<ride busStop="bs_7" to="-356359316#3" />
		<stop busStop="bs_2" duration="100" />
	</person>
	<person id="3" type="pedestrian" depart="2">
		<stop edge="462764504#3" duration="10" />
		<walk busStop="bs_5" duration="20" />
		<ride busStop="bs_5" to="-356359316#3" />
		<stop busStop="bs_2" duration="100" />
	</person>
	<person id="4" type="pedestrian" depart="2">
		<stop edge="465683476#2" duration="20" />
		<walk busStop="st_2" duration="20" />
		<ride busStop="st_2" />
		<stop busStop="" duration="100" />
	</person>
	<person id="5" type="pedestrian" depart="2">
		<stop edge="462764504#3" duration="10" />
		<walk busStop="bs_5" duration="20" />
		<ride busStop="bs_5" to="-356359316#3" />
		<stop busStop="bs_2" duration="100" />
	</person>
	<person id="6" type="pedestrian" depart="2">
		<stop edge="1117897479#1" duration="20" />
		<walk busStop="st_1" duration="20" />
		<ride busStop="st_1" to="1191505455#1" />
		<stop busStop="st_2" duration="100" />
	</person>
	<person id="7" type="pedestrian" depart="2">
		<stop edge="1149847405#0" duration="10" />
		<walk busStop="bs_4" duration="20" />
		<ride busStop="bs_4" to="-356359316#3" />
		<stop busStop="bs_2" duration="100" />
	</person>
	<person id="8" type="pedestrian" depart="2">
		<stop edge="1228446777#3" duration="10" />
		<walk busStop="bs_10" duration="20" />
		<ride busStop="bs_10" to="-356359316#3" />
		<stop busStop="bs_2" duration="100" />
	</person>
	<person id="9" type="pedestrian" depart="2">
		<stop edge="1190798655#2" duration="10" />
		<walk busStop="bs_3" duration="20" />
		<ride busStop="bs_3" to="-356359316#3" />
		<stop busStop="bs_2" duration="100" />
	</person>
	<person id="10" type="pedestrian" depart="2">
		<stop edge="1228446777#3" duration="10" />
		<walk busStop="bs_10" duration="20" />
		<ride busStop="bs_10" to="-356359316#3" />
		<stop busStop="bs_2" duration="100" />
	</person>
	<person id="11" type="pedestrian" depart="2">
		<stop edge="1106891943#1" duration="10" />
		<walk busStop="bs_12" duration="20" />
		<ride busStop="bs_12" to="-356359316#3" />
		<stop busStop="bs_2" duration="100" />
	</person>
	<person id="12" type="pedestrian" depart="2">
		<stop edge="1228446772#3" duration="10" />
		<walk busStop="bs_9" duration="20" />
		<ride busStop="bs_9" to="-356359316#3" />
		<stop busStop="bs_2" duration="100" />
	</person>
	<person id="13" type="pedestrian" depart="2">
		<stop edge="465683476#2" duration="20" />
		<walk busStop="st_2" duration="20" />
		<ride busStop="st_2" />
		<stop busStop="" duration="100" />
	</person>
	<person id="14" type="pedestrian" depart="2">
		<stop edge="1217880400#1" duration="10" />
		<walk busStop="bs_1" duration="20" />
		<ride busStop="bs_1" to="-356359316#3" />
		<stop busStop="bs_2" duration="100" />
	</person>
	<person id="15" type="pedestrian" depart="2">
		<stop edge="462764504#3" duration="10" />
		<walk busStop="bs_5" duration="20" />
		<ride busStop="bs_5" to="-356359316#3" />
		<stop busStop="bs_2" duration="100" />
	</person>
	<person id="16" type="pedestrian" depart="2">
		<stop edge="1106891943#1" duration="10" />
		<walk busStop="bs_12" duration="20" />
		<ride busStop="bs_12" to="-356359316#3" />
		<stop busStop="bs_2" duration="100" />
	</person>
	<person id="17" type="pedestrian" depart="2">
		<stop edge="1228446777#3" duration="10" />
		<walk busStop="bs_10" duration="20" />
		<ride busStop="bs_10" to="-356359316#3" />
		<stop busStop="bs_2" duration="100" />
	</person>
	<person id="18" type="pedestrian" depart="2">
		<stop edge="241574704#1" duration="10" />
		<walk busStop="bs_7" duration="20" />
		<ride busStop="bs_7" to="-356359316#3" />
		<stop busStop="bs_2" duration="100" />
	</person>
	<person id="19" type="pedestrian" depart="2">
		<stop edge="1149851903#4" duration="10" />
		<walk busStop="bs_8" duration="20" />
		<ride busStop="bs_8" to="-356359316#3" />
		<stop busStop="bs_2" duration="100" />
	</person>
	<person id="20" type="pedestrian" depart="2">
		<stop edge="1186574016#1" duration="20" />
		<walk busStop="st_3" duration="20" />
		<ride busStop="st_3" to="466891839#0" />
		<stop busStop="st_4" duration="100" />
	</person>
	<person id="21" type="pedestrian" depart="2">
		<stop edge="241574704#1" duration="10" />
		<walk busStop="bs_7" duration="20" />
		<ride busStop="bs_7" to="-356359316#3" />
		<stop busStop="bs_2" duration="100" />
	</person>
	<person id="22" type="pedestrian" depart="2">
		<stop edge="1149851903#4" duration="10" />
		<walk busStop="bs_8" duration="20" />
		<ride busStop="bs_8" to="-356359316#3" />
		<stop busStop="bs_2" duration="100" />
	</person>
	<person id="23" type="pedestrian" depart="2">
		<stop edge="1190798655#2" duration="10" />
		<walk busStop="bs_3" duration="20" />
		<ride busStop="bs_3" to="-356359316#3" />
		<stop busStop="bs_2" duration="100" />
	</person>
	<person id="24" type="pedestrian" depart="2">
		<stop edge="1117897479#1" duration="20" />
		<walk busStop="st_1" duration="20" />
		<ride busStop="st_1" to="1191505455#1" />
		<stop busStop="st_2" duration="100" />
	</person>
	<person id="25" type="pedestrian" depart="2">
		<stop edge="1106891943#1" duration="10" />
		<walk busStop="bs_12" duration="20" />
		<ride busStop="bs_12" to="-356359316#3" />
		<stop busStop="bs_2" duration="100" />
	</person>
	<person id="26" type="pedestrian" depart="2">
		<stop edge="1228446777#3" duration="10" />
		<walk busStop="bs_10" duration="20" />
		<ride busStop="bs_10" to="-356359316#3" />
		<stop busStop="bs_2" duration="100" />
	</person>
	<person id="27" type="pedestrian" depart="2">
		<stop edge="462764504#3" duration="10" />
		<walk busStop="bs_5" duration="20" />
		<ride busStop="bs_5" to="-356359316#3" />
		<stop busStop="bs_2" duration="100" />
	</person>
	<person id="28" type="pedestrian" depart="2">
		<stop edge="1186574016#1" duration="20" />
		<walk busStop="st_3" duration="20" />
		<ride busStop="st_3" to="466891839#0" />
		<stop busStop="st_4" duration="100" />
	</person>
	<person id="29" type="pedestrian" depart="2">
		<stop edge="1228446772#3" duration="10" />
		<walk busStop="bs_9" duration="20" />
		<ride busStop="bs_9" to="-356359316#3" />
		<stop busStop="bs_2" duration="100" />
	</person>
	<person id="30" type="pedestrian" depart="2">
		<stop edge="1190798655#2" duration="10" />
		<walk busStop="bs_3" duration="20" />
		<ride busStop="bs_3" to="-356359316#3" />
		<stop busStop="bs_2" duration="100" />
	</person>
	<person id="31" type="pedestrian" depart="2">
		<stop edge="465683476#2" duration="20" />
		<walk busStop="st_2" duration="20" />
		<ride busStop="st_2" />
		<stop busStop="" duration="100" />
	</person>
	<person id="32" type="pedestrian" depart="2">
		<stop edge="462764504#3" duration="10" />
		<walk busStop="bs_5" duration="20" />
		<ride busStop="bs_5" to="-356359316#3" />
		<stop busStop="bs_2" duration="100" />
	</person>
	<person id="33" type="pedestrian" depart="2">
		<stop edge="1117897479#1" duration="20" />
		<walk busStop="st_1" duration="20" />
		<ride busStop="st_1" to="1191505455#1" />
		<stop busStop="st_2" duration="100" />
	</person>
	<person id="34" type="pedestrian" depart="2">
		<stop edge="1149851903#4" duration="10" />
		<walk busStop="bs_8" duration="20" />
		<ride busStop="bs_8" to="-356359316#3" />
		<stop busStop="bs_2" duration="100" />
	</person>
	<person id="35" type="pedestrian" depart="2">
		<stop edge="1228446772#3" duration="10" />
		<walk busStop="bs_9" duration="20" />
		<ride busStop="bs_9" to="-356359316#3" />
		<stop busStop="bs_2" duration="100" />
	</person>
	<person id="36" type="pedestrian" depart="2">
		<stop edge="462764504#3" duration="10" />
		<walk busStop="bs_5" duration="20" />
		<ride busStop="bs_5" to="-356359316#3" />
		<stop busStop="bs_2" duration="100" />
	</person>
	<person id="37" type="pedestrian" depart="2">
		<stop edge="1217880400#1" duration="10" />
		<walk busStop="bs_1" duration="20" />
		<ride busStop="bs_1" to="-356359316#3" />
		<stop busStop="bs_2" duration="100" />
	</person>
	<person id="38" type="pedestrian" depart="2">
		<stop edge="1149847405#0" duration="10" />
		<walk busStop="bs_4" duration="20" />
		<ride busStop="bs_4" to="-356359316#3" />
		<stop busStop="bs_2" duration="100" />
	</person>
	<person id="39" type="pedestrian" depart="2">
		<stop edge="1228446777#3" duration="10" />
		<walk busStop="bs_10" duration="20" />
		<ride busStop="bs_10" to="-356359316#3" />
		<stop busStop="bs_2" duration="100" />
	</person>
	<person id="40" type="pedestrian" depart="2">
		<stop edge="241574704#1" duration="10" />
		<walk busStop="bs_7" duration="20" />
		<ride busStop="bs_7" to="-356359316#3" />
		<stop busStop="bs_2" duration="100" />
	</person>
	<person id="41" type="pedestrian" depart="2">
		<stop edge="1186574016#1" duration="20" />
		<walk busStop="st_3" duration="20" />
		<ride busStop="st_3" to="466891839#0" />
		<stop busStop="st_4" duration="100" />
	</person>
	<person id="42" type="pedestrian" depart="2">
		<stop edge="241574704#1" duration="10" />
		<walk busStop="bs_7" duration="20" />
		<ride busStop="bs_7" to="-356359316#3" />
		<stop busStop="bs_2" duration="100" />
	</person>
	<person id="43" type="pedestrian" depart="2">
		<stop edge="465683476#2" duration="20" />
		<walk busStop="st_2" duration="20" />
		<ride busStop="st_2" />
		<stop busStop="" duration="100" />
	</person>
	<person id="44" type="pedestrian" depart="2">
		<stop edge="1149847405#0" duration="10" />
		<walk busStop="bs_4" duration="20" />
		<ride busStop="bs_4" to="-356359316#3" />
		<stop busStop="bs_2" duration="100" />
	</person>
	<person id="45" type="pedestrian" depart="2">
		<stop edge="241574704#1" duration="10" />
		<walk busStop="bs_7" duration="20" />
		<ride busStop="bs_7" to="-356359316#3" />
		<stop busStop="bs_2" duration="100" />
	</person>
	<person id="46" type="pedestrian" depart="2">
		<stop edge="1228446772#3" duration="10" />
		<walk busStop="bs_9" duration="20" />
		<ride busStop="bs_9" to="-356359316#3" />
		<stop busStop="bs_2" duration="100" />
	</person>
	<person id="47" type="pedestrian" depart="2">
		<stop edge="1186574016#1" duration="20" />
		<walk busStop="st_3" duration="20" />
		<ride busStop="st_3" to="466891839#0" />
		<stop busStop="st_4" duration="100" />
	</person>
	<person id="48" type="pedestrian" depart="2">
		<stop edge="462764504#3" duration="10" />
		<walk busStop="bs_5" duration="20" />
		<ride busStop="bs_5" to="-356359316#3" />
		<stop busStop="bs_2" duration="100" />
	</person>
	<person id="49" type="pedestrian" depart="2">
		<stop edge="465683476#2" duration="20" />
		<walk busStop="st_2" duration="20" />
		<ride busStop="st_2" />
		<stop busStop="" duration="100" />
	</person>
	<person id="50" type="pedestrian" depart="2">
		<stop edge="1124627672#0" duration="10" />
		<walk busStop="bs_6" duration="20" />
		<ride busStop="bs_6" to="-356359316#3" />
		<stop busStop="bs_2" duration="100" />
	</person>
	<person id="51" type="pedestrian" depart="2">
		<stop edge="241574704#1" duration="10" />
		<walk busStop="bs_7" duration="20" />
		<ride busStop="bs_7" to="-356359316#3" />
		<stop busStop="bs_2" duration="100" />
	</person>
	<person id="52" type="pedestrian" depart="2">
		<stop edge="1217880400#1" duration="10" />
		<walk busStop="bs_1" duration="20" />
		<ride busStop="bs_1" to="-356359316#3" />
		<stop busStop="bs_2" duration="100" />
	</person>
	<person id="53" type="pedestrian" depart="2">
		<stop edge="465683476#2" duration="20" />
		<walk busStop="st_2" duration="20" />
		<ride busStop="st_2" />
		<stop busStop="" duration="100" />
	</person>
	<person id="54" type="pedestrian" depart="2">
		<stop edge="1106891943#1" duration="10" />
		<walk busStop="bs_11" duration="20" />
		<ride busStop="bs_11" to="-356359316#3" />
		<stop busStop="bs_2" duration="100" />
	</person>
	<person id="55" type="pedestrian" depart="2">
		<stop edge="1106891943#1" duration="10" />
		<walk busStop="bs_12" duration="20" />
		<ride busStop="bs_12" to="-356359316#3" />
		<stop busStop="bs_2" duration="100" />
	</person>
	<person id="56" type="pedestrian" depart="2">
		<stop edge="1228446772#3" duration="10" />
		<walk busStop="bs_9" duration="20" />
		<ride busStop="bs_9" to="-356359316#3" />
		<stop busStop="bs_2" duration="100" />
	</person>
	<person id="57" type="pedestrian" depart="2">
		<stop edge="1217880400#1" duration="10" />
		<walk busStop="bs_1" duration="20" />
		<ride busStop="bs_1" to="-356359316#3" />
		<stop busStop="bs_2" duration="100" />
	</person>
	<person id="58" type="pedestrian" depart="2">
		<stop edge="1106891943#1" duration="10" />
		<walk busStop="bs_11" duration="20" />
		<ride busStop="bs_11" to="-356359316#3" />