<?xml version="1.0" encoding="UTF-8"?>

<!-- generated on 2024-08-31 14:24:37.985518 by osmWebWizard.py v1_20_0+0002-343658e7c64
<configuration>
    <net-file value="C:\Users\Mohamed\Sumo\2024-08-31-14-22-42\osm.net.xml.gz"/>
    <output-trip-file value="C:\Users\Mohamed\Sumo\2024-08-31-14-22-42\osm.passenger.trips.xml"/>
    <route-file value="C:\Users\Mohamed\Sumo\2024-08-31-14-22-42\osm.passenger.rou.xml"/>
    <prefix value="veh"/>
    <trip-attributes value="departLane=&quot;best&quot;"/>
    <fringe-start-attributes value="departSpeed=&quot;max&quot;"/>
    <vehicle-class value="passenger"/>
    <lanes value="True"/>
    <fringe-factor value="5"/>
    <allow-fringe.min-length value="1000.0"/>
    <via-edge-types value="highway.motorway,highway.motorway_link,highway.trunk_link,highway.primary_link,highway.secondary_link,highway.tertiary_link"/>
    <min-distance value="300.0"/>
    <min-distance.fringe value="10.0"/>
    <remove-loops value="True"/>
    <validate value="True"/>
    <insertion-density value="12.0"/>
</configuration>
-->

<!-- generated on 2024-08-31 14:24:32 by Eclipse SUMO duarouter Version 1.20.0
<configuration xmlns:xsi="http://www.w3.org/2001/XMLSchema-instance" xsi:noNamespaceSchemaLocation="http://sumo.dlr.de/xsd/duarouterConfiguration.xsd">

    <input>
        <net-file value="C:\Users\Mohamed\Sumo\2024-08-31-14-22-42\osm.net.xml.gz"/>
        <route-files value="C:\Users\Mohamed\Sumo\2024-08-31-14-22-42\osm.passenger.trips.xml"/>
    </input>

    <output>
        <output-file value="C:\Users\Mohamed\Sumo\2024-08-31-14-22-42\osm.passenger.trips.xml.tmp"/>
        <alternatives-output value="NUL"/>
        <write-trips value="true"/>
    </output>

    <processing>
        <remove-loops value="true"/>
    </processing>

    <time>
        <begin value="0.0"/>
        <end value="3600.0"/>
    </time>

    <report>
        <no-warnings value="true"/>
        <ignore-errors value="true"/>
        <no-step-log value="true"/>
    </report>

</configuration>
-->

<routes xmlns:xsi="http://www.w3.org/2001/XMLSchema-instance" xsi:noNamespaceSchemaLocation="http://sumo.dlr.de/xsd/routes_file.xsd">
    <vType id="veh_passenger" vClass="passenger"/>
    <trip id="veh0" type="veh_passenger" depart="0.00" departLane="best" from="24704435#3" to="-1107180848#3"/>
    <trip id="veh1" type="veh_passenger" depart="0.93" departLane="best" from="-64781926#3" to="-4612695#5"/>
    <trip id="veh2" type="veh_passenger" depart="1.86" departLane="best" from="375311153#1" to="30253522#5"/>
    <trip id="veh4" type="veh_passenger" depart="3.73" departLane="best" from="-1147217110#2" to="4611912#2"/>
    <trip id="veh5" type="veh_passenger" depart="4.66" departLane="best" from="-4611895#1" to="1239070974#1"/>
    <trip id="veh6" type="veh_passenger" depart="5.59" departLane="best" from="-1107180848#4" to="4531625#1"/>
    <trip id="veh7" type="veh_passenger" depart="6.52" departLane="best" from="25121296#9" to="155605270#1"/>
    <trip id="veh8" type="veh_passenger" depart="7.45" departLane="best" from="-4611905#1" to="-182692251#2"/>
    <trip id="veh9" type="veh_passenger" depart="8.38" departLane="best" from="4612696#6" to="-1057185692#1"/>
    <trip id="veh10" type="veh_passenger" depart="9.32" departLane="best" from="4612395#9" to="32640223#7"/>
    <trip id="veh11" type="veh_passenger" depart="10.25" departLane="best" from="-1057578010#1" to="-251168443#1"/>
    <trip id="veh12" type="veh_passenger" depart="11.18" departLane="best" from="849540404#1" to="-1057576180#1"/>
    <trip id="veh13" type="veh_passenger" depart="12.11" departLane="best" from="-1228562464#7" to="1255668749#6"/>
    <trip id="veh14" type="veh_passenger" depart="13.04" departLane="best" from="4859901#0" to="206718346#2"/>
    <trip id="veh15" type="veh_passenger" depart="13.97" departLane="best" from="4612412#5" to="36259516#0"/>
    <trip id="veh16" type="veh_passenger" depart="14.90" departLane="best" from="153373879#1" to="959902756#0"/>
    <trip id="veh17" type="veh_passenger" depart="15.84" departLane="best" from="1116876547#0" to="156132847#1"/>
    <trip id="veh18" type="veh_passenger" depart="16.77" departLane="best" from="4642204#0" to="318665525"/>
    <trip id="veh19" type="veh_passenger" depart="17.70" departLane="best" from="49850635#0" to="172425901#6"/>
    <trip id="veh20" type="veh_passenger" depart="18.63" departLane="best" from="1209555018" to="-1142744695#0"/>
    <trip id="veh21" type="veh_passenger" depart="19.56" departLane="best" from="4612752#11" to="-751353891#2"/>
    <trip id="veh22" type="veh_passenger" depart="20.49" departLane="best" from="-1165237408#0" to="-4618782#7"/>
    <trip id="veh23" type="veh_passenger" depart="21.43" departLane="best" from="128276155#7" to="-666916974#7"/>
    <trip id="veh24" type="veh_passenger" depart="22.36" departLane="best" from="246136582#4" to="1102369979"/>
    <trip id="veh25" type="veh_passenger" depart="23.29" departLane="best" from="-1162276440#0" to="-4611773#0"/>
    <trip id="veh27" type="veh_passenger" depart="25.15" departLane="best" from="25121294#1" to="228498038"/>
    <trip id="veh28" type="veh_passenger" depart="26.08" departLane="best" from="-31480086#1" to="36259509#0"/>
    <trip id="veh29" type="veh_passenger" depart="27.02" departLane="best" from="-279549312#11" to="1117176140#1"/>
    <trip id="veh30" type="veh_passenger" depart="27.95" departLane="best" from="988868964#1" to="-24803471#1"/>
    <trip id="veh31" type="veh_passenger" depart="28.88" departLane="best" departSpeed="max" from="163839578#0" to="31103135"/>
    <trip id="veh33" type="veh_passenger" depart="30.74" departLane="best" from="-4612753#6" to="-1125019570#0"/>
    <trip id="veh35" type="veh_passenger" depart="32.60" departLane="best" from="4607069#3" to="80366517#8"/>
    <trip id="veh36" type="veh_passenger" depart="33.54" departLane="best" from="-53357390#2" to="975473306#1"/>
    <trip id="veh37" type="veh_passenger" depart="34.47" departLane="best" from="25418070#1" to="1133296864#4"/>
    <trip id="veh38" type="veh_passenger" depart="35.40" departLane="best" from="68462528#4" to="11607582#0"/>
    <trip id="veh39" type="veh_passenger" depart="36.33" departLane="best" from="-540264517#2" to="4887461#0"/>
    <trip id="veh41" type="veh_passenger" depart="38.19" departLane="best" from="179019680#2" to="-65425827#0"/>
    <trip id="veh42" type="veh_passenger" depart="39.13" departLane="best" from="-1133584117#3" to="-4612395#11"/>
    <trip id="veh43" type="veh_passenger" depart="40.06" departLane="best" from="997788462#1" to="-1254814709#0"/>
    <trip id="veh44" type="veh_passenger" depart="40.99" departLane="best" from="-1211180971#1" to="1144358729"/>
    <trip id="veh45" type="veh_passenger" depart="41.92" departLane="best" from="-153372294#1" to="240959630#2"/>
    <trip id="veh46" type="veh_passenger" depart="42.85" departLane="best" from="4607070#5" to="1147217102#1"/>
    <trip id="veh47" type="veh_passenger" depart="43.78" departLane="best" from="-1147754949#0" to="-1122284338#1"/>
    <trip id="veh48" type="veh_passenger" depart="44.71" departLane="best" from="997185171#2" to="152264795#8"/>
    <trip id="veh49" type="veh_passenger" depart="45.65" departLane="best" from="959902764#1" to="-508410318#2"/>
    <trip id="veh50" type="veh_passenger" depart="46.58" departLane="best" from="-106820465#0" to="339201250#0"/>
    <trip id="veh51" type="veh_passenger" depart="47.51" departLane="best" from="311557432#0" to="-153372178#1"/>
    <trip id="veh53" type="veh_passenger" depart="49.37" departLane="best" departSpeed="max" from="-155071540#5" to="-1147648922#1"/>
    <trip id="veh54" type="veh_passenger" depart="50.30" departLane="best" from="1152890141#1" to="840977575#1"/>
    <trip id="veh55" type="veh_passenger" depart="51.24" departLane="best" from="53357388#7" to="-563341815#3"/>
    <trip id="veh56" type="veh_passenger" depart="52.17" departLane="best" from="-380451748#1" to="-334696689#1"/>
    <trip id="veh57" type="veh_passenger" depart="53.10" departLane="best" from="678030953#2" to="53357053#1"/>
    <trip id="veh58" type="veh_passenger" depart="54.03" departLane="best" from="-793161547#3" to="24699572#2"/>
    <trip id="veh59" type="veh_passenger" depart="54.96" departLane="best" from="22701539#1" to="-249453223#0"/>
    <trip id="veh60" type="veh_passenger" depart="55.89" departLane="best" from="42747981#4" to="153653006"/>
    <trip id="veh61" type="veh_passenger" depart="56.83" departLane="best" from="-1102601953#0" to="152470023"/>
    <trip id="veh62" type="veh_passenger" depart="57.76" departLane="best" from="102486195" to="1040940511"/>
    <trip id="veh63" type="veh_passenger" depart="58.69" departLane="best" from="-1096949316#1" to="75066614#6"/>
    <trip id="veh64" type="veh_passenger" depart="59.62" departLane="best" from="541763977#1" to="466891838#1"/>
    <trip id="veh65" type="veh_passenger" depart="60.55" departLane="best" from="845476765#6" to="-1147597452#3"/>
    <trip id="veh66" type="veh_passenger" depart="61.48" departLane="best" from="540264518#0" to="816324779#1"/>
    <trip id="veh67" type="veh_passenger" depart="62.41" departLane="best" from="-1147768850#1" to="42623234#1"/>
    <trip id="veh68" type="veh_passenger" depart="63.35" departLane="best" from="4396528#3" to="-188591697"/>
    <trip id="veh69" type="veh_passenger" depart="64.28" departLane="best" from="117915138#0" to="156132845#2"/>
    <trip id="veh70" type="veh_passenger" depart="65.21" departLane="best" from="-540264517#3" to="53357061#7"/>
    <trip id="veh71" type="veh_passenger" depart="66.14" departLane="best" from="-1147217173#0" to="4611785#4"/>
    <trip id="veh72" type="veh_passenger" depart="67.07" departLane="best" from="154483994#2" to="36259516#1"/>
    <trip id="veh73" type="veh_passenger" depart="68.00" departLane="best" from="-4531465#2" to="-894048585#1"/>
    <trip id="veh74" type="veh_passenger" depart="68.94" departLane="best" departSpeed="max" from="997185171#0" to="25121297#2"/>
    <trip id="veh75" type="veh_passenger" depart="69.87" departLane="best" from="1147755006#1" to="-1311664010#2"/>
    <trip id="veh76" type="veh_passenger" depart="70.80" departLane="best" from="-169755108#0" to="4612752#7"/>
    <trip id="veh77" type="veh_passenger" depart="71.73" departLane="best" from="1057545069#4" to="181407580#6"/>
    <trip id="veh78" type="veh_passenger" depart="72.66" departLane="best" from="-4612758#3" to="-4612403#0"/>
    <trip id="veh79" type="veh_passenger" depart="73.59" departLane="best" from="-1152723807#1" to="24214232#2"/>
    <trip id="veh80" type="veh_passenger" depart="74.52" departLane="best" from="-4612753#4" to="665241888#1"/>
    <trip id="veh81" type="veh_passenger" depart="75.46" departLane="best" from="-490361981#0" to="-1152876518#0"/>
    <trip id="veh82" type="veh_passenger" depart="76.39" departLane="best" from="-4618827#2" to="-28497527#0"/>
    <trip id="veh83" type="veh_passenger" depart="77.32" departLane="best" from="-4611785#3" to="195344063#3"/>
    <trip id="veh84" type="veh_passenger" depart="78.25" departLane="best" from="764003851#1" to="169753567#2"/>
    <trip id="veh85" type="veh_passenger" depart="79.18" departLane="best" from="1174011920#1" to="-4588072#1"/>
    <trip id="veh86" type="veh_passenger" depart="80.11" departLane="best" from="4612429#1" to="39093456#1"/>
    <trip id="veh87" type="veh_passenger" depart="81.05" departLane="best" from="1254451747#1" to="1147628343#1"/>
    <trip id="veh88" type="veh_passenger" depart="81.98" departLane="best" from="1147217187#0" to="116432821#2"/>
    <trip id="veh89" type="veh_passenger" depart="82.91" departLane="best" from="36259509#2" to="30130057#1"/>
    <trip id="veh90" type="veh_passenger" depart="83.84" departLane="best" from="980178510" to="-128276155#4"/>
    <trip id="veh91" type="veh_passenger" depart="84.77" departLane="best" from="-1136034157#1" to="1057562141#1"/>
    <trip id="veh92" type="veh_passenger" depart="85.70" departLane="best" from="49850635#0" to="-4892696#0"/>
    <trip id="veh93" type="veh_passenger" depart="86.64" departLane="best" from="375311153#1" to="1150659539#1"/>
    <trip id="veh94" type="veh_passenger" depart="87.57" departLane="best" from="-1147217110#2" to="67524735#0"/>
    <trip id="veh95" type="veh_passenger" depart="88.50" departLane="best" from="4887458#5" to="1144048223#1"/>
    <trip id="veh96" type="veh_passenger" depart="89.43" departLane="best" from="1147767977#8" to="508614986"/>
    <trip id="veh97" type="veh_passenger" depart="90.36" departLane="best" from="159081772#1" to="23859721#1"/>
    <trip id="veh98" type="veh_passenger" depart="91.29" departLane="best" from="997788500#3" to="4686360#2"/>
    <trip id="veh99" type="veh_passenger" depart="92.22" departLane="best" from="957237074#1" to="733686427#4"/>
    <trip id="veh100" type="veh_passenger" depart="93.16" departLane="best" departSpeed="max" from="48859717#0" to="307275797"/>
    <trip id="veh101" type="veh_passenger" depart="94.09" departLane="best" departSpeed="max" from="1187435118" to="-4611885#10"/>
    <trip id="veh102" type="veh_passenger" depart="95.02" departLane="best" from="11350521" to="-1147628373#0"/>
    <trip id="veh103" type="veh_passenger" depart="95.95" departLane="best" from="1116876562" to="980178507#0"/>
    <trip id="veh104" type="veh_passenger" depart="96.88" departLane="best" from="-542721618" to="4588063#1"/>
    <trip id="veh105" type="veh_passenger" depart="97.81" departLane="best" from="1152890204#1" to="1147217150#1"/>
    <trip id="veh106" type="veh_passenger" depart="98.75" departLane="best" from="849540404#2" to="997185168#1"/>
    <trip id="veh107" type="veh_passenger" depart="99.68" departLane="best" from="160971204#2" to="335487067#0"/>
    <trip id="veh108" type="veh_passenger" depart="100.61" departLane="best" from="-24986658#5" to="-806822590#2"/>
    <trip id="veh109" type="veh_passenger" depart="101.54" departLane="best" from="9536457#2" to="172425905"/>
    <trip id="veh110" type="veh_passenger" depart="102.47" departLane="best" from="155073131#1" to="381816959#2"/>
    <trip id="veh111" type="veh_passenger" depart="103.40" departLane="best" from="-1147413288#0" to="175671145#0"/>
    <trip id="veh112" type="veh_passenger" depart="104.33" departLane="best" from="1228841637#1" to="48907690#3"/>
    <trip id="veh113" type="veh_passenger" depart="105.27" departLane="best" from="25360632#0" to="856043392#1"/>
    <trip id="veh114" type="veh_passenger" depart="106.20" departLane="best" from="-1165426236#2" to="-356359316#3"/>
    <trip id="veh115" type="veh_passenger" depart="107.13" departLane="best" departSpeed="max" from="195332166#0" to="30253522#0"/>
    <trip id="veh116" type="veh_passenger" depart="108.06" departLane="best" from="-4618711#3" to="172274268#15"/>
    <trip id="veh117" type="veh_passenger" depart="108.99" departLane="best" from="603897822#2" to="-4887458#5"/>
    <trip id="veh118" type="veh_passenger" depart="109.92" departLane="best" from="195332154#0" to="236000458#7"/>
    <trip id="veh119" type="veh_passenger" depart="110.86" departLane="best" from="-176031303#0" to="173210316#6"/>
    <trip id="veh120" type="veh_passenger" depart="111.79" departLane="best" from="146008695#3" to="764003836"/>
    <trip id="veh121" type="veh_passenger" depart="112.72" departLane="best" from="4583401" to="335487058#0"/>
    <trip id="veh122" type="veh_passenger" depart="113.65" departLane="best" from="-461905067#2" to="1133296864#5"/>
    <trip id="veh123" type="veh_passenger" depart="114.58" departLane="best" from="30185207#1" to="-840875318#1"/>
    <trip id="veh124" type="veh_passenger" depart="115.51" departLane="best" from="-881150159#2" to="385888166#9"/>
    <trip id="veh125" type="veh_passenger" depart="116.45" departLane="best" from="-1152880163#2" to="1152931045#1"/>
    <trip id="veh127" type="veh_passenger" depart="118.31" departLane="best" from="-542721618" to="75909822#1"/>
    <trip id="veh129" type="veh_passenger" depart="120.17" departLane="best" from="-1210129960#0" to="-25999940#2"/>
    <trip id="veh130" type="veh_passenger" depart="121.10" departLane="best" from="-1136272446" to="328426227#2"/>
    <trip id="veh131" type="veh_passenger" depart="122.03" departLane="best" from="228498046#1" to="981316311#1"/>
    <trip id="veh132" type="veh_passenger" depart="122.97" departLane="best" from="25282192#1" to="1057554996#2"/>
    <trip id="veh133" type="veh_passenger" depart="123.90" departLane="best" from="4616595#0" to="-840593691#3"/>
    <trip id="veh134" type="veh_passenger" depart="124.83" departLane="best" from="28251487#2" to="793161547#4"/>
    <trip id="veh135" type="veh_passenger" depart="125.76" departLane="best" from="-195344067" to="165292180#0"/>
    <trip id="veh136" type="veh_passenger" depart="126.69" departLane="best" from="-152264795#6" to="159081772#1"/>
    <trip id="veh137" type="veh_passenger" depart="127.62" departLane="best" from="62276476" to="209264198#7"/>
    <trip id="veh138" type="veh_passenger" depart="128.56" departLane="best" from="337967751#2" to="4588215#5"/>
    <trip id="veh139" type="veh_passenger" depart="129.49" departLane="best" from="24579669#1" to="5786177#2"/>
    <trip id="veh140" type="veh_passenger" depart="130.42" departLane="best" departSpeed="max" from="1188343255#0" to="66514476#0"/>
    <trip id="veh141" type="veh_passenger" depart="131.35" departLane="best" departSpeed="max" from="481651810" to="-12307802#7"/>
    <trip id="veh142" type="veh_passenger" depart="132.28" departLane="best" from="1147217187#0" to="-66514461#3"/>
    <trip id="veh143" type="veh_passenger" depart="133.21" departLane="best" from="-1046077064#3" to="4474915#1"/>
    <trip id="veh144" type="veh_passenger" depart="134.14" departLane="best" from="246136583#1" to="-542983664#2"/>
    <trip id="veh145" type="veh_passenger" depart="135.08" departLane="best" from="37535279#1" to="156132846#6"/>
    <trip id="veh146" type="veh_passenger" depart="136.01" departLane="best" from="1147597422#1" to="-1059672153#5"/>
    <trip id="veh147" type="veh_passenger" depart="136.94" departLane="best" from="-1152906451#1" to="5786177#1"/>
    <trip id="veh148" type="veh_passenger" depart="137.87" departLane="best" from="664569950#0" to="155605273#1"/>
    <trip id="veh149" type="veh_passenger" depart="138.80" departLane="best" from="4686360#2" to="172780076#2"/>
    <trip id="veh150" type="veh_passenger" depart="139.73" departLane="best" from="-240438953#8" to="-183216297#0"/>
    <trip id="veh151" type="veh_passenger" depart="140.67" departLane="best" departSpeed="max" from="-849540330#1" to="-65426521"/>
    <trip id="veh152" type="veh_passenger" depart="141.60" departLane="best" from="-4611782#3" to="508410318#1"/>
    <trip id="veh153" type="veh_passenger" depart="142.53" departLane="best" from="65040946#3" to="-4611775#10"/>
    <trip id="veh154" type="veh_passenger" depart="143.46" departLane="best" from="4887458#2" to="-147150379"/>
    <trip id="veh155" type="veh_passenger" depart="144.39" departLane="best" from="-4531816#8" to="593851958#0"/>
    <trip id="veh156" type="veh_passenger" depart="145.32" departLane="best" from="1137714605#0" to="23755710#0"/>
    <trip id="veh157" type="veh_passenger" depart="146.26" departLane="best" from="-24986658#2" to="-751353891#5"/>
    <trip id="veh158" type="veh_passenger" depart="147.19" departLane="best" from="5110895#2" to="962252499"/>
    <trip id="veh159" type="veh_passenger" depart="148.12" departLane="best" from="-1107180832#0" to="37289167#7"/>
    <trip id="veh160" type="veh_passenger" depart="149.05" departLane="best" from="1057188364#0" to="753575546#0"/>
    <trip id="veh161" type="veh_passenger" depart="149.98" departLane="best" from="4611901#2" to="51755232#2"/>
    <trip id="veh162" type="veh_passenger" depart="150.91" departLane="best" from="4612753#12" to="-61639013#2"/>
    <trip id="veh163" type="veh_passenger" depart="151.84" departLane="best" from="-4597356#10" to="-15388688#2"/>
    <trip id="veh164" type="veh_passenger" depart="152.78" departLane="best" from="53357051#3" to="495949631"/>
    <trip id="veh165" type="veh_passenger" depart="153.71" departLane="best" from="-4612395#10" to="4612874#3"/>
    <trip id="veh166" type="veh_passenger" depart="154.64" departLane="best" from="1161817426#1" to="-851251671#0"/>
    <trip id="veh167" type="veh_passenger" depart="155.57" departLane="best" from="4611775#4" to="-4612871#6"/>
    <trip id="veh168" type="veh_passenger" depart="156.50" departLane="best" from="110450334#1" to="-4403571#0"/>
    <trip id="veh169" type="veh_passenger" depart="157.43" departLane="best" from="1044406928#0" to="51755232#7"/>
    <trip id="veh170" type="veh_passenger" depart="158.37" departLane="best" from="906374993#1" to="676251852#1"/>
    <trip id="veh171" type="veh_passenger" depart="159.30" departLane="best" from="24912613" to="-1134241765#5"/>
    <trip id="veh172" type="veh_passenger" depart="160.23" departLane="best" from="973566413" to="153151592#0"/>
    <trip id="veh173" type="veh_passenger" depart="161.16" departLane="best" from="793161547#2" to="164874299#6"/>
    <trip id="veh174" type="veh_passenger" depart="162.09" departLane="best" from="959671528#1" to="334696689#0"/>
    <trip id="veh175" type="veh_passenger" depart="163.02" departLane="best" from="866658801#0" to="-60826006#0"/>
    <trip id="veh176" type="veh_passenger" depart="163.95" departLane="best" from="-152953930#1" to="-1147628453#2"/>
    <trip id="veh177" type="veh_passenger" depart="164.89" departLane="best" from="358219002" to="-9536457#2"/>
    <trip id="veh178" type="veh_passenger" depart="165.82" departLane="best" from="-1133008269#0" to="1255205127#2"/>
    <trip id="veh179" type="veh_passenger" depart="166.75" departLane="best" departSpeed="max" from="1123257663#0" to="172425901#2"/>
    <trip id="veh180" type="veh_passenger" depart="167.68" departLane="best" from="-490361982#3" to="32976452#4"/>
    <trip id="veh181" type="veh_passenger" depart="168.61" departLane="best" from="103844045#1" to="722013168#3"/>
    <trip id="veh182" type="veh_passenger" depart="169.54" departLane="best" from="15388688#0" to="335543103"/>
    <trip id="veh183" type="veh_passenger" depart="170.48" departLane="best" from="-37736292#1" to="28497756#1"/>
    <trip id="veh184" type="veh_passenger" depart="171.41" departLane="best" from="-1102369976#0" to="-1152723803#0"/>
    <trip id="veh185" type="veh_passenger" depart="172.34" departLane="best" from="283311191#1" to="1057190073#2"/>
    <trip id="veh186" type="veh_passenger" depart="173.27" departLane="best" from="-86724076" to="53357390#0"/>
    <trip id="veh187" type="veh_passenger" depart="174.20" departLane="best" departSpeed="max" from="340498997" to="840875330#1"/>
    <trip id="veh188" type="veh_passenger" depart="175.13" departLane="best" from="851251671#2" to="1140251036"/>
    <trip id="veh189" type="veh_passenger" depart="176.07" departLane="best" from="-4495006" to="80366517#4"/>
    <trip id="veh190" type="veh_passenger" depart="177.00" departLane="best" from="-181407580#0" to="1146825600"/>
    <trip id="veh191" type="veh_passenger" depart="177.93" departLane="best" from="793161548#5" to="303145396#1"/>
    <trip id="veh192" type="veh_passenger" depart="178.86" departLane="best" from="66071387#2" to="23026127#0"/>
    <trip id="veh193" type="veh_passenger" depart="179.79" departLane="best" from="102486168" to="-722013115#4"/>
    <trip id="veh194" type="veh_passenger" depart="180.72" departLane="best" from="1147628339#1" to="172425919#1"/>
    <trip id="veh195" type="veh_passenger" depart="181.65" departLane="best" from="-25360632#1" to="1162629360#1"/>
    <trip id="veh196" type="veh_passenger" depart="182.59" departLane="best" from="1147767968#2" to="4611885#1"/>
    <trip id="veh197" type="veh_passenger" depart="183.52" departLane="best" from="1174240018#0" to="1147907390"/>
    <trip id="veh198" type="veh_passenger" depart="184.45" departLane="best" from="-4611782#1" to="-31480624#6"/>
    <trip id="veh199" type="veh_passenger" depart="185.38" departLane="best" from="-1179961813#2" to="-12770231"/>
    <trip id="veh200" type="veh_passenger" depart="186.31" departLane="best" from="24242838#4" to="1057545069#5"/>
    <trip id="veh201" type="veh_passenger" depart="187.24" departLane="best" from="4618712#1" to="385888166#4"/>
    <trip id="veh202" type="veh_passenger" depart="188.18" departLane="best" from="30253522#12" to="4612752#6"/>
    <trip id="veh203" type="veh_passenger" depart="189.11" departLane="best" from="-4495000#7" to="1107180846"/>
    <trip id="veh204" type="veh_passenger" depart="190.04" departLane="best" from="-4686487#2" to="1177629849#1"/>
    <trip id="veh205" type="veh_passenger" depart="190.97" departLane="best" departSpeed="max" from="48859718#0" to="-1152890141#1"/>
    <trip id="veh206" type="veh_passenger" depart="191.90" departLane="best" from="508614988#3" to="24214089#4"/>
    <trip id="veh207" type="veh_passenger" depart="192.83" departLane="best" from="-4357822#2" to="32253794#1"/>
    <trip id="veh208" type="veh_passenger" depart="193.76" departLane="best" from="1201055185#3" to="475841685#1"/>
    <trip id="veh209" type="veh_passenger" depart="194.70" departLane="best" from="25945760#0" to="-1057180954#0"/>
    <trip id="veh210" type="veh_passenger" depart="195.63" departLane="best" from="385888166#5" to="44172941#1"/>
    <trip id="veh211" type="veh_passenger" depart="196.56" departLane="best" from="-152264795#1" to="1147413246"/>
    <trip id="veh212" type="veh_passenger" depart="197.49" departLane="best" from="327979621#2" to="851436048#0"/>
    <trip id="veh213" type="veh_passenger" depart="198.42" departLane="best" from="-131578006#2" to="-1146978808#0"/>
    <trip id="veh214" type="veh_passenger" depart="199.35" departLane="best" from="-4887457#3" to="710761408#0"/>
    <trip id="veh215" type="veh_passenger" depart="200.29" departLane="best" departSpeed="max" from="1152906471#0" to="4611895#4"/>
    <trip id="veh216" type="veh_passenger" depart="201.22" departLane="best" from="28497262#1" to="981316314"/>
    <trip id="veh217" type="veh_passenger" depart="202.15" departLane="best" from="195332171#2" to="840593691#4"/>
    <trip id="veh218" type="veh_passenger" depart="203.08" departLane="best" from="60825554" to="228498046#8"/>
    <trip id="veh219" type="veh_passenger" depart="204.01" departLane="best" departSpeed="max" from="340498997" to="1238964555#3"/>
    <trip id="veh220" type="veh_passenger" depart="204.94" departLane="best" from="-466891841#0" to="155605343#2"/>
    <trip id="veh221" type="veh_passenger" depart="205.88" departLane="best" from="632065766#1" to="37933094"/>
    <trip id="veh222" type="veh_passenger" depart="206.81" departLane="best" from="-4618814#0" to="53357053#7"/>
    <trip id="veh223" type="veh_passenger" depart="207.74" departLane="best" from="475530951#3" to="-24666391#2"/>
    <trip id="veh224" type="veh_passenger" depart="208.67" departLane="best" from="-4396528#3" to="139350149#2"/>
    <trip id="veh225" type="veh_passenger" depart="209.60" departLane="best" from="23969684#9" to="66071383#9"/>
    <trip id="veh226" type="veh_passenger" depart="210.53" departLane="best" from="-1152931044#1" to="-71165512#3"/>
    <trip id="veh227" type="veh_passenger" depart="211.46" departLane="best" from="-62240975#6" to="1029435691#0"/>
    <trip id="veh228" type="veh_passenger" depart="212.40" departLane="best" from="53356537#2" to="-22791312#2"/>
    <trip id="veh229" type="veh_passenger" depart="213.33" departLane="best" from="4612871#6" to="95928366#1"/>
    <trip id="veh230" type="veh_passenger" depart="214.26" departLane="best" from="32976452#2" to="1147767901#3"/>
    <trip id="veh231" type="veh_passenger" depart="215.19" departLane="best" from="1138131258#0" to="155071250#2"/>
    <trip id="veh232" type="veh_passenger" depart="216.12" departLane="best" from="-1001886268#1" to="-4600068#0"/>
    <trip id="veh233" type="veh_passenger" depart="217.05" departLane="best" from="1146825644#1" to="66514461#3"/>
    <trip id="veh234" type="veh_passenger" depart="217.99" departLane="best" from="-176213810#3" to="31969137#0"/>
    <trip id="veh235" type="veh_passenger" depart="218.92" departLane="best" from="4894030" to="4396528#1"/>
    <trip id="veh236" type="veh_passenger" depart="219.85" departLane="best" from="-1119479441" to="-1057180955#1"/>
    <trip id="veh237" type="veh_passenger" depart="220.78" departLane="best" from="1079440907#1" to="39093456#1"/>
    <trip id="veh238" type="veh_passenger" depart="221.71" departLane="best" from="-4887461#6" to="840977561#1"/>
    <trip id="veh239" type="veh_passenger" depart="222.64" departLane="best" from="156132842#5" to="199847252#1"/>
    <trip id="veh240" type="veh_passenger" depart="223.57" departLane="best" from="-4611905#2" to="-4612395#12"/>
    <trip id="veh241" type="veh_passenger" depart="224.51" departLane="best" from="-1147754986#0" to="-1121496496"/>
    <trip id="veh242" type="veh_passenger" depart="225.44" departLane="best" from="328064921#4" to="30770226#5"/>
    <trip id="veh243" type="veh_passenger" depart="226.37" departLane="best" from="1136272400#1" to="-28497260#2"/>
    <trip id="veh244" type="veh_passenger" depart="227.30" departLane="best" from="1165426238#3" to="-183216297#1"/>
    <trip id="veh245" type="veh_passenger" depart="228.23" departLane="best" from="23755731#1" to="-1110388547#4"/>
    <trip id="veh246" type="veh_passenger" depart="229.16" departLane="best" from="1132782772" to="168913091#2"/>
    <trip id="veh247" type="veh_passenger" depart="230.10" departLane="best" from="-1109632977#0" to="24912623#1"/>
    <trip id="veh248" type="veh_passenger" depart="231.03" departLane="best" departSpeed="max" from="-197160273#2" to="1161823542#0"/>